/batch
/config,noeldb,1     ! force off writing results to database
*get,_wallstrt,active,,time,wall
! ANSYS input file written by Workbench version 2022 R2
! File used for geometry attach: H:\My Drive\Master's_Semister-I\Ansys(SES)\Assignments\Thesis\Modeling Solid Edge\Wings .igs
/title,end--Static Structural (A5)
! ****** Begin Custom Load Command Snippet ******
/COM, ACT Extensions:
/COM,     LSDYNA, 2022.2
/COM,     5f463412-bd3e-484b-87e7-cbc0a665e474, wbex
/COM,/COM,     ANSYSMotion, 2022.2
/COM,     20180725-3f81-49eb-9f31-41364844c769, wbex
/COM,
! ****** End   Custom Load Command Snippet ******
*DIM,_wb_ProjectScratch_dir,string,248
_wb_ProjectScratch_dir(1) = 'C:\Users\Anoop\Desktop\_ProjectScratch\Scr80BB\'
*DIM,_wb_SolverFiles_dir,string,248
_wb_SolverFiles_dir(1) = 'C:\Users\Anoop\Desktop\end_files\dp0\SYS\MECH\'
*DIM,_wb_userfiles_dir,string,248
_wb_userfiles_dir(1) = 'C:\Users\Anoop\Desktop\end_files\user_files\'
/com,--- Data in consistent MKS units. See Solving Units in the help system for more information.
/units,MKS
/nopr
/wb,file,start              !  signify a WB generated input file
/prep7
! Turn off shape checking because checks already performed inside WB mesher.
! See help system for more information.
SHPP,OFF,,NOWARN
/nolist
etcon,set             ! allow ANSYS to choose best KEYOP's for 180x elements, resets any applicable keyopt to MAPDL defaults
/com,*********** Nodes for the whole assembly ***********
nblock,3,,3562
(1i9,3e20.9e3)
        1     8.682847532E-02     1.000000000E-02    -1.894729117E-08
        2    -1.140487785E-02     1.000000000E-02     3.170018230E-03
        3     5.908609749E-02     1.000000000E-02     6.534046766E-03
        4     3.708083261E-02     1.000000000E-02     1.031095017E-02
        5     1.173518863E-02     1.000000000E-02     1.171374108E-02
        6    -7.950717228E-04     1.000000000E-02     9.772806710E-03
        7    -6.634615254E-03     1.000000000E-02     7.305805656E-03
        8    -9.224920736E-03     1.000000000E-02     5.472995683E-03
        9     9.193987490E-04     1.001803891E-17    -1.839358318E-04
       10    -7.265043332E-03     2.359457033E-03     2.468318516E-03
       11    -1.026310159E-02     5.664972241E-03     3.020367179E-03
       12    -8.942179244E-03     3.840540852E-03     2.808472559E-03
       13    -1.111183027E-02     7.758166411E-03     3.134298828E-03
       14    -3.317265229E-03     5.108917845E-04     1.315126932E-03
       15    -5.354927929E-03     1.250692690E-03     1.970641720E-03
       16     3.075284100E-02     4.549279537E-13     9.954015312E-04
       17     1.575161897E-02     1.000000000E-17     1.829111805E-03
       18     8.251484591E-03     1.000000000E-17     1.396966682E-03
       19     5.031261542E-02     4.238249172E-04     9.923399478E-04
       20     6.976849378E-02     2.359614319E-03     5.631208991E-04
! ... 3220 like lines cut
/wb,elem,start            !  set before creation of elements
/com,*********** Elements for Body 1 "Wings -FreeParts" ***********
et,1,187
eblock,19,solid,,1656
(19i9)
        1        1        1        1        0        0        0        0       10        0        1       72      526      286      519     1043     2341     1039     1042
     3199     2340
        1        1        1        1        0        0        0        0       10        0        2       71      526      286       72     1036     2341     1034     1032
     1043     1039
        1        1        1        1        0        0        0        0       10        0        3      199      526      499      519     1909     3172     1906     1908
     3199     3171
        1        1        1        1        0        0        0        0       10        0        4      286      526      500      519     2341     3174     2339     2340
     3199     3173
        1        1        1        1        0        0        0        0       10        0        5      286      526      289      500     2341     2352     2337     2339
     3174     2350
        1        1        1        1        0        0        0        0       10        0        6      199      500      526      519     1907     3174     1909     1908
     3173     3199
        1        1        1        1        0        0        0        0       10        0        7      199      289      526      500     1903     2352     1909     1907
     2350     3174
        1        1        1        1        0        0        0        0       10        0        8       70      199      289      526     1026     1903     1027     1031
     1909     2352
        1        1        1        1        0        0        0        0       10        0        9       71      286      526       73     1034     2341     1036     1033
     1044     1047
        1        1        1        1        0        0        0        0       10        0       10       72      484      526      519     1041     3122     1043     1042
     3121     3199
! ... 3293 like lines cut
!Material Id = {4DAAAF02-2B74-40D6-BD3B-38109465F43E}
/wb,elem,end               !  done creating elements
/com,*********** Send User Defined Coordinate System(s) ***********
csys,0
toffst,273.15,  ! Temperature offset from absolute zero
/com,*********** Set Reference Temperature ***********
tref,22.
/wb,mat,start              !  starting to send materials
/com,*********** Send Materials ***********
Temperature = 'TEMP' ! Temperature
MP,DENS,1,4620,	! kg m^-3
MP,ALPX,1,9.4e-06,	! C^-1
MP,C,1,522,	! J kg^-1 C^-1
MP,KXX,1,21.9,	! W m^-1 C^-1
MP,RSVX,1,1.7e-06,	! kg m^3 A^-2 s^-3
MP,EX,1,96000000000,	! Pa
MP,NUXY,1,0.36,
MP,MURX,1,1,
MP,UVID,1,41c05707-0d33-446c-b379-cdedf83ca387
MP,UMID,1,c4cc4a57-3226-45fe-b3f8-5a83eb845bd6

/wb,mat,end                !  done sending materials
!************************* Model Summary ********************
!Wings -FreeParts,	Titanium Alloy,	matid,	1
!************************* End Model Summary ********************
! get the diagonal of the bounding box. Needed later for other things
*get,_xmin,node,,mnloc,x
*get,_ymin,node,,mnloc,y
*get,_zmin,node,,mnloc,z
*get,_xmax,node,,mxloc,x
*get,_ymax,node,,mxloc,y
*get,_zmax,node,,mxloc,z
_ASMDIAG=(_xmax-_xmin)*(_xmax-_xmin)+(_ymax-_ymin)*(_ymax-_ymin)+(_zmax-_zmin)*(_zmax-_zmin)
_ASMDIAG=SQRT(_ASMDIAG)
/wb,contact,start          !  starting to send contact
/wb,contact,end            !  done creating contacts
/golist
/wb,load,start             !  starting to send loads
CMBLOCK,_CM66_FIXEDSU,NODE,      115
(8i10)
         1        16        19        20        21        22        23        24
        25        51        61        67        68        69        70        71
        72        73        97        98       205       206       207       208
       209       210       367       368       369       370       371       372
       373       374       375       376       566       568       571       678
       680       683       684       706       709       710       711       713
       717       718       719       720       724       725       726       728
       729       730       732       733       735       737       902       904
       970       972       974      1011      1012      1014      1016      1017
      1019      1022      1023      1028      1032      1033      1035      1038
      1040      1046      1187      1188      1189      1190      1191      1195
      1199      1200      1933      1934      1935      1938      1940      1943
      1944      1948      1949      1954      1959      1960      1961      1965
      1966      2685      2686      2690      2693      2699      2702      2704
      2706      2707      2708
CMBLOCK,_CM68_FIXEDSU,NODE,      102
(8i10)
         9        51        52        53        54        55        56        57
        58        59        60        61        62        63        64        65
        66        67        68        69        70        71        72        73
       197       198       199       285       286       287       288       289
       290       632       633       636       902       903       907       908
       909       910       915       916       918       920       928       929
       932       933       936       939       940       946       950       951
       954       957       960       965       970       971       977       978
       979       980       985       986       987       988       994       995
      1001      1002      1006      1007      1008      1011      1012      1013
      1016      1017      1018      1021      1026      1027      1032      1033
      1034      1037      1039      1044      1045      1894      1897      1903
      2333      2334      2336      2337      2342      2347
CMBLOCK,_CM70_FIXEDSU,NODE,       91
(8i10)
         2         9        10        11        12        13        14        15
        54        55        56        57        58        59        60       180
       181       182       183       184       185       186       265       266
       267       268       269       270       271       572       573       576
       631       633       635       640       641       642       643       646
       647       648       649       655       660       661       665       666
       667       672       673       918       919       922       928       929
       930       931       936       937       938       944       945       950
       951       952       953       958       959       964      1789      1790
      1791      1792      1799      1800      1801      1805      1806      1810
      1814      1815      1816      1820      1824      2267      2269      2270
      2276      2280      2281
CMBLOCK,_CM72_FIXEDSU,NODE,      147
(8i10)
         1         2         3         4         5         6         7         8
         9        10        11        12        13        14        15        16
        17        18        19        20        21        22        23        24
        25       187       188       189       190       191       306       307
       308       309       310       311       312       313       314       315
       316       317       318       319       320       566       567       570
       572       574       581       583       584       585       586       589
       593       594       601       602       603       604       611       612
       613       614       622       623       624       627       628       631
       634       637       640       641       644       646       647       650
       651       656       659       662       665       668       669       674
       675       678       679       681       682       688       690       693
       694       701       703       706       707       708       713       714
       715       716       720       721       722       723       726       727
       730       731       733       734       736      1828      1831      1832
      1833      1841      1842      1845      1852      1853      1856      1857
      1858      2411      2412      2415      2416      2417      2422      2423
      2427      2431      2434      2437      2438      2443      2444      2448
      2449      2453      2459
CMBLOCK,_CM74_FIXEDSU,NODE,       33
(8i10)
         9        16        17        18        51        52        53       190
       191       197       205       206       632       634       679       680
       688       689       690       691       692       699       700       701
       702       903       904       907       908       914      1850      1851
      1933
/com,*********** Fixed Supports ***********
CMBLOCK,_FIXEDSU,NODE,      400
(8i10)
         1         2         3         4         5         6         7         8
         9        10        11        12        13        14        15        16
        17        18        19        20        21        22        23        24
        25        51        52        53        54        55        56        57
        58        59        60        61        62        63        64        65
        66        67        68        69        70        71        72        73
        97        98       180       181       182       183       184       185
       186       187       188       189       190       191       197       198
       199       205       206       207       208       209       210       265
       266       267       268       269       270       271       285       286
       287       288       289       290       306       307       308       309
       310       311       312       313       314       315       316       317
       318       319       320       367       368       369       370       371
       372       373       374       375       376       566       567       568
       570       571       572       573       574       576       581       583
       584       585       586       589       593       594       601       602
       603       604       611       612       613       614       622       623
       624       627       628       631       632       633       634       635
       636       637       640       641       642       643       644       646
       647       648       649       650       651       655       656       659
! ... 30 like lines cut

cmsel,s,_FIXEDSU
d,all,all
nsel,all
/com,*********** Define Pressure Vector Using Surface Effect Elements ***********
local,12,0,0.,0.,0.,0.,0.,0.
csys,0
et,2,154
eblock,10,,,78
(15i9)
     2565        2        2        2       12      135      447      449      449     1462     2964      449     1463
     2566        2        2        2       12      106      107      451      451     1266     1284      451     1273
     2567        2        2        2       12      105      451      450      450     1263     2971      450     1262
     2568        2        2        2       12      104      450      449      449     1254     2970      449     1253
     2569        2        2        2       12      133      134      449      449     1450     1458      449     1453
     2570        2        2        2       12      128      129      452      452     1429     1437      452     1431
     2571        2        2        2       12      132      450      451      451     1448     2971      451     1449
     2572        2        2        2       12      134      135      449      449     1455     1463      449     1458
     2573        2        2        2       12      102      103      449      449     1230     1245      449     1237
     2574        2        2        2       12      119      120      448      448     1391     1398      448     1394
     2575        2        2        2       12      211      212      220      220     1967     1976      220     1969
     2576        2        2        2       12      211      220      219      219     1969     2012      219     1968
     2577        2        2        2       12      211      219      448      448     1968     2014      448     1975
     2578        2        2        2       12       61      216      208      208      973     1947      208      972
     2579        2        2        2       12      119      448      219      219     1394     2014      219     1392
     2580        2        2        2       12      133      449      450      450     1453     2970      450     1454
     2581        2        2        2       12       74      214      218      218     1050     1989      218     1051
     2582        2        2        2       12      136      221      447      447     1464     2017      447     1466
     2583        2        2        2       12      207      208      216      216     1940     1947      216     1942
     2584        2        2        2       12      209      447      221      221     1962     2017      221     1955
! ... 59 like lines cut
esel,s,type,,2
keyop,2,2,1                ! Apply load in local coordinate system
keyop,2,7,0                ! Use deformed area for application of load
esel,all
/com,*********** Define Pressure Vector Using Surface Effect Elements ***********
local,13,0,0.,0.,0.,0.,0.,0.
csys,0
et,3,154
eblock,10,,,129
(15i9)
     2643        3        3        3       13       75      201      425      425     1057     1917      425     1061
     2644        3        3        3       13      422      423      445      445     2860     2867      445     2861
     2645        3        3        3       13      113      430      114      114     1338     1350      114     1333
     2646        3        3        3       13      113      431      430      430     1339     2896      430     1338
     2647        3        3        3       13      157      430      237      237     1609     2108      237     1605
     2648        3        3        3       13      237      430      431      431     2108     2896      431     2109
     2649        3        3        3       13      158      239      429      429     1613     2121      429     1616
     2650        3        3        3       13      158      429      238      238     1616     2114      238     1612
     2651        3        3        3       13      117      426      118      118     1378     1387      118     1374
     2652        3        3        3       13      116      429      428      428     1370     2889      428     1369
     2653        3        3        3       13      115      430      429      429     1360     2892      429     1359
     2654        3        3        3       13      116      427      117      117     1368     1379      117     1363
     2655        3        3        3       13      156      237      431      431     1599     2109      431     1602
     2656        3        3        3       13      118      426      423      423     1387     2866      423     1386
     2657        3        3        3       13      239      428      429      429     2120     2889      429     2121
     2658        3        3        3       13      159      428      239      239     1623     2120      239     1619
     2659        3        3        3       13       78      425       79       79     1083     1088       79     1079
     2660        3        3        3       13      160      427      240      240     1631     2126      240     1626
     2661        3        3        3       13      161      242      423      423     1635     2139      423     1638
     2662        3        3        3       13      106      438      107      107     1271     1283      107     1266
! ... 110 like lines cut
esel,s,type,,3
keyop,3,2,1                ! Apply load in local coordinate system
keyop,3,7,0                ! Use deformed area for application of load
esel,all
/gst,on,on
fini
*get,_numnode,node,0,count
*get,_numelem,elem,0,count
*get, _MAXELEMNUM, elem, 0, NUM, MAX
*get, _MAXNODENUM, node, 0, NUM, MAX
*get, _MAXELEMTYPE, etyp, 0, NUM, MAX
*get, _MAXREALCONST, rcon, 0, NUM, MAX
/go
/wb,load,end               !  done creating loads
/com,--- Number of total nodes = %_numnode%
/com,--- Number of contact elements = 207
/com,--- Number of spring elements = 0
/com,--- Number of bearing elements = 0
/com,--- Number of solid elements = 1656
/com,--- Number of condensed parts = 0
/com,--- Number of total elements = %_numelem%
*get,_wallbsol,active,,time,wall
/com,****************************************************************************
/com,*************************    SOLUTION       ********************************
/com,****************************************************************************
/solu
antype,0                   ! static analysis
nlgeom,on                  ! Turn on Large Deformation Effects
_thickRatio=  0     ! Ratio of thick parts in the model
eqsl,sparse,,,,,1
cntr,print,1               ! print out contact info and also make no initial contact an error
nldiag,cont,iter           ! print out contact info each equilibrium iteration
rescontrol,define,last           ! Turn on restart files due to future eigen analysis intent
/com,****************************************************
/com,******************* SOLVE FOR LS 1 OF 1 ****************
esel,s,type,,2
nsle
sfe,all,1,pres,1,0.
sfe,all,2,pres,1,0.
sfe,all,3,pres,1,0.1
esel,s,type,,3
nsle
sfe,all,1,pres,1,0.
sfe,all,2,pres,1,0.
sfe,all,3,pres,1,0.1
nsel,all
esel,all
/nopr
/gopr
autots,on                  ! Workbench Program Controlled automatic time stepping
nsub,1,10,1                ! due to presence of general nonlinear
time,1.
outres,erase
outres,all,none
outres,nsol,all,
outres,rsol,all
outres,eangl,all
outres,etmp,all
outres,veng,all
outres,strs,all,
outres,epel,all,
outres,eppl,all,
outres,cont,all,
! *********** WB SOLVE COMMAND ***********
! check interactive state
*get,ANSINTER_,active,,int
*if,ANSINTER_,ne,0,then
/eof
*endif
solve
/com *************** Write FE CONNECTORS ********* 
CEWRITE,file,ce,,INTE
/com,****************************************************
/com,*************** FINISHED SOLVE FOR LS 1 *************
*get,_wallasol,active,,time,wall
/nopr
*get,_numnode,node,0,count
*get,_numelem,elem,0,count
*get, _MAXELEMNUM, elem, 0, NUM, MAX
*get, _MAXNODENUM, node, 0, NUM, MAX,,,INTERNAL
*get, _MAXELEMTYPE, etyp, 0, NUM, MAX
*get, _MAXREALCONST, rcon, 0, NUM, MAX
*get,_NSOLTHREADS,active,0,ntfs
*get,_NSOLPROCESSES,active,0,npfs
/gopr
/post1
xmlo,ENCODING,ISO-8859-1
xmlo,parm
/xml,parm,xml
fini
/gopr
*get,_walldone,active,,time,wall
_preptime=(_wallbsol-_wallstrt)*3600
_solvtime=(_wallasol-_wallbsol)*3600
_posttime=(_walldone-_wallasol)*3600
_totaltim=(_walldone-_wallstrt)*3600
*get,_dlbratio,active,0,solu,dlbr
*get,_combtime,active,0,solu,comb
*get,_ssmode,active,0,solu,ssmm
*get,_ndofs,active,0,solu,ndof
/com,--- Total number of nodes = %_numnode%
/com,--- Total number of elements = %_numelem%
/com,--- Element load balance ratio = %_dlbratio%
/com,--- Time to combine distributed files = %_combtime%
/com,--- Sparse memory mode = %_ssmode%
/com,--- Number of DOF = %_ndofs%
/wb,file,end               ! done with WB generated input
